Version 4
SHEET 1 1144 696
WIRE 368 -192 320 -192
WIRE 864 -192 448 -192
WIRE 320 -96 320 -192
WIRE 368 -96 320 -96
WIRE 544 -96 528 -96
WIRE 624 -96 608 -96
WIRE 784 -80 768 -80
WIRE 864 -80 864 -192
WIRE 864 -80 848 -80
WIRE 80 -48 80 -64
WIRE 160 -48 160 -64
WIRE 240 -48 240 -96
WIRE -224 -32 -224 -48
WIRE -128 -32 -128 -48
WIRE 320 -16 320 -96
WIRE 336 -16 320 -16
WIRE 448 0 448 -96
WIRE 448 0 400 0
WIRE 528 0 528 -96
WIRE 544 0 528 0
WIRE 336 16 320 16
WIRE 624 16 624 -96
WIRE 624 16 608 16
WIRE 672 16 624 16
WIRE 768 16 768 -80
WIRE 768 16 752 16
WIRE 784 16 768 16
WIRE 544 32 528 32
WIRE 864 32 864 -80
WIRE 864 32 848 32
WIRE 880 32 864 32
WIRE 784 48 768 48
WIRE -224 64 -224 48
WIRE -128 64 -128 48
WIRE 528 64 528 32
WIRE 768 80 768 48
WIRE 320 96 320 16
WIRE 368 96 320 96
WIRE 624 96 624 16
WIRE 624 96 448 96
WIRE 320 192 320 176
WIRE 448 416 448 384
WIRE 624 416 624 384
WIRE 800 416 800 384
FLAG -128 64 0
FLAG -128 -48 +V
FLAG -224 64 0
FLAG -224 -48 -V
FLAG -448 192 X
FLAG -448 272 0
FLAG 448 304 d[X]
FLAG 624 304 d[out]
FLAG 448 416 0
FLAG 624 416 0
FLAG 800 304 d[CHECK]
FLAG 800 416 0
FLAG 48 480 0
FLAG 48 400 CHECK
FLAG 160 -48 0
FLAG 80 -48 0
FLAG 160 -144 V+
FLAG 80 -144 V-
FLAG 368 -32 V+
FLAG 368 32 V-
FLAG 576 -16 V+
FLAG 576 48 V-
FLAG 528 64 0
FLAG 816 0 V+
FLAG 816 64 V-
FLAG 768 80 0
FLAG 320 192 0
FLAG 240 -48 0
FLAG 880 32 OUT
IOPIN 880 32 Out
FLAG 240 16 X
IOPIN 240 16 In
SYMBOL voltage -128 -48 R0
SYMATTR InstName V1
SYMATTR Value 5
SYMBOL voltage -224 -48 R0
WINDOW 123 0 0 Left 2
WINDOW 39 0 0 Left 2
SYMATTR InstName V2
SYMATTR Value -5
SYMBOL voltage -448 176 R0
WINDOW 3 24 152 Left 2
WINDOW 123 24 124 Left 2
WINDOW 39 0 0 Left 2
SYMATTR Value PULSE(0 1 0 .1m .1m 100)
SYMATTR Value2 AC 1
SYMATTR InstName V3
SYMBOL bv 448 288 R0
SYMATTR InstName B2
SYMATTR Value V=ddt(v(x))
SYMBOL bv 624 288 R0
SYMATTR InstName B3
SYMATTR Value V=ddt(v(out))
SYMBOL bv 800 288 R0
SYMATTR InstName B4
SYMATTR Value V=ddt(v(CHECK))
SYMBOL bv 48 384 R0
SYMATTR InstName B5
SYMATTR Value V=V(X) LAPLACE=((3.947*10^9)/(s^2+(8.8857*10^4)*s+(3.947*10^9)))
SYMBOL voltage 160 -160 R0
WINDOW 123 0 0 Left 0
WINDOW 39 0 0 Left 0
SYMATTR InstName V4
SYMATTR Value 5
SYMBOL voltage 80 -160 R0
WINDOW 123 0 0 Left 0
WINDOW 39 0 0 Left 0
SYMATTR InstName V5
SYMATTR Value -5
SYMBOL res 336 0 R90
WINDOW 0 0 56 VBottom 2
WINDOW 3 32 56 VTop 2
SYMATTR InstName RIN1
SYMATTR Value 100k
SYMBOL res 304 80 R0
SYMATTR InstName R1
SYMATTR Value 100k
SYMBOL res 464 -112 R90
WINDOW 0 0 56 VBottom 2
WINDOW 3 32 56 VTop 2
SYMATTR InstName R2
SYMATTR Value 100k
SYMBOL res 544 -16 R90
WINDOW 0 0 56 VBottom 2
WINDOW 3 32 56 VTop 2
SYMATTR InstName R3
SYMATTR Value 2k
SYMBOL cap 848 -96 R90
WINDOW 0 0 32 VBottom 2
WINDOW 3 32 32 VTop 2
SYMATTR InstName C1
SYMATTR Value 330pF
SYMBOL res 768 0 R90
WINDOW 0 0 56 VBottom 2
WINDOW 3 32 56 VTop 2
SYMATTR InstName R4
SYMATTR Value 3.57k
SYMBOL cap 608 -112 R90
WINDOW 0 0 32 VBottom 2
WINDOW 3 32 32 VTop 2
SYMATTR InstName C2
SYMATTR Value 330pF
SYMBOL res 464 80 R90
WINDOW 0 0 56 VBottom 2
WINDOW 3 32 56 VTop 2
SYMATTR InstName R5
SYMATTR Value 100k
SYMBOL res 464 -208 R90
WINDOW 0 0 56 VBottom 2
WINDOW 3 32 56 VTop 2
SYMATTR InstName R6
SYMATTR Value 100k
SYMBOL res 336 -112 R90
WINDOW 0 0 56 VBottom 2
WINDOW 3 32 56 VTop 2
SYMATTR InstName RD1
SYMATTR Value 100k
SYMBOL Opamps\\LT1815 368 0 R0
SYMATTR InstName U1
SYMBOL Opamps\\LT1815 576 16 R0
SYMATTR InstName U2
SYMBOL Opamps\\LT1815 816 32 R0
SYMATTR InstName U3
TEXT -256 144 Left 2 !.param F0=60\n.param W=2*pi*F0\n.param C3=10u\n.param C=C3/2\n.param R=1/2/pi/C/F0\n.param R3=R/2
TEXT -272 352 Left 2 !;ac dec 2000 20 200
TEXT -464 352 Left 2 !.tran 1000u
TEXT 544 536 Left 2 !.options plotwinsize=0\n.options  numdgt=7
